* 
* Copyright (c) 1993 - 2024 ARM. All Rights Reserved
* This file has been provided pursuant to a License Agreement
* containing restrictions on its use.  This file contains valuable
* trade secrets and proprietary information of ARM,
* and is protected by patents, copyright law
* and international treaties
* 
* Generated by bif2cdl 3.9.2
* Version: r1p1
* Name: High Density Dual Port SRAM RVT RVT Compiler | LOGIC0040LL 40nm Process 0.589um^2 Bit Cell
* Comment: 
* Configuration:  -activity_factor 50 -back_biasing off -bits 64 -b\
* Configuration: mux on -bus_notation on -check_instname on -diodes\
* Configuration:  on -drive 6 -ema on -frequency 1.0 -instname SRAM\
* Configuration: dpw64d256 -left_bus_delim "[" -mux 4 -mvt "" -name\
* Configuration: _case upper -power_type otc -prefix "" -pwr_gnd_re\
* Configuration: name vddpe:VDDPE,vddce:VDDCE,vsse:VSSE -retention \
* Configuration: on -right_bus_delim "]" -rows_p_bl 256 -ser none -\
* Configuration: site_def off -top_layer m5-m10 -words 256 -write_m\
* Configuration: ask off -write_thru off -corners ff_1p21v_1p21v_0c\
* Configuration: ,ff_1p21v_1p21v_125c,ff_1p21v_1p21v_m40c,ss_0p99v_\
* Configuration: 0p99v_0c,ss_0p99v_0p99v_125c,ss_0p99v_0p99v_m40c,t\
* Configuration: t_1p10v_1p10v_125c,tt_1p10v_1p10v_25c,tt_1p10v_1p1\
* Configuration: 0v_85c
* Codefile: 
* 
*
*.BIPOLAR
*.DIOAREA
*.DIOPERI
*
****
.SUBCKT SRAMdpw64d256CCCAP4 BIT_A[0] BIT_A[1] BIT_A[2] BIT_A[3] BIT_B[0]
+  BIT_B[1] BIT_B[2] BIT_B[3] DATAIN_A DATAIN_B GDL_A GDL_B NBIT_A[0]
+  NBIT_A[1] NBIT_A[2] NBIT_A[3] NBIT_B[0] NBIT_B[1] NBIT_B[2] NBIT_B[3]
+  NWGSEL_A NWGSEL_B VDDC VDDCE VDDPE VNWC VPW VSSE
** SRAMdpw64d256CCCAP4: 48 flat devices **
X_MXN1 VPW NET0111 NET0154 VPW dpcnfetpd_ckt W=0.305U L=0.055U
X_MXN12 NET0128 VPW BIT_B[3] VPW dpcnfetwlb_ckt W=0.154U L=0.067U
X_MXN14 NET0124 VPW BIT_B[2] VPW dpcnfetwlb_ckt W=0.154U L=0.067U
X_MXN15 NBIT_B[3] VPW NET0121 VPW dpcnfetwla_ckt W=0.154U L=0.067U
X_MXN16 NBIT_B[2] VPW NET0117 VPW dpcnfetwla_ckt W=0.154U L=0.067U
X_MXN18 NBIT_B[0] VPW NET055 VPW dpcnfetwla_ckt W=0.154U L=0.067U
X_MXN26 VPW VPW VPW VPW dpcnfetwla_ckt W=0.154U L=0.067U
X_MXN27 VPW VPW VPW VPW dpcnfetwla_ckt W=0.154U L=0.067U
X_MXN28 VPW VPW VPW VPW dpcnfetwla_ckt W=0.154U L=0.067U
X_MXN29 VPW VPW VPW VPW dpcnfetwla_ckt W=0.154U L=0.067U
X_MXN30 VPW VPW NET130 VPW dpcnfetwla_ckt W=0.154U L=0.067U
X_MXN31 VPW VPW NET134 VPW dpcnfetwla_ckt W=0.154U L=0.067U
X_MXN32 VPW VPW NET138 VPW dpcnfetwla_ckt W=0.154U L=0.067U
X_MXN33 VPW VPW NET142 VPW dpcnfetwla_ckt W=0.154U L=0.067U
X_MXN4 NET0161 NET0163 VSSE VPW dpcnfetpd_ckt W=0.305U L=0.055U
X_MXN40 NET053 NET0143 VSSE VPW dpcnfetpd_ckt W=0.305U L=0.055U
X_MXN41 VPW NET095 VPW VPW dpcnfetpd_ckt W=0.305U L=0.055U
X_MXN42 VPW NET087 NET0134 VPW dpcnfetpd_ckt W=0.305U L=0.055U
X_MXN43 VPW NET083 NET0146 VPW dpcnfetpd_ckt W=0.305U L=0.055U
X_MXN44 VPW NET0103 VPW VPW dpcnfetpd_ckt W=0.305U L=0.055U
X_MXN45 NET054 NET0151 VSSE VPW dpcnfetpd_ckt W=0.305U L=0.055U
X_MXN46 NET052 NET0119 VSSE VPW dpcnfetpd_ckt W=0.305U L=0.055U
X_MXN47 VPW NET071 VPW VPW dpcnfetpd_ckt W=0.305U L=0.055U
X_MXN48 VPW NET079 NET0122 VPW dpcnfetpd_ckt W=0.305U L=0.055U
X_MXN49 NET0176 VPW BIT_B[0] VPW dpcnfetwlb_ckt W=0.154U L=0.067U
X_MXN50 NBIT_B[1] VPW NET0173 VPW dpcnfetwla_ckt W=0.154U L=0.067U
X_MXN51 NET0168 VPW BIT_B[1] VPW dpcnfetwlb_ckt W=0.154U L=0.067U
X_MXN52 VPW VPW NET0153 VPW dpcnfetwlb_ckt W=0.154U L=0.067U
X_MXN53 VPW VPW NET0149 VPW dpcnfetwlb_ckt W=0.154U L=0.067U
X_MXN54 VPW VPW NET0145 VPW dpcnfetwlb_ckt W=0.154U L=0.067U
X_MXN55 VPW VPW NET0141 VPW dpcnfetwlb_ckt W=0.154U L=0.067U
X_MXN56 VPW VPW VPW VPW dpcnfetwlb_ckt W=0.154U L=0.067U
X_MXN57 VPW VPW VPW VPW dpcnfetwlb_ckt W=0.154U L=0.067U
X_MXN58 VPW VPW VPW VPW dpcnfetwlb_ckt W=0.154U L=0.067U
X_MXN59 VPW VPW VPW VPW dpcnfetwlb_ckt W=0.154U L=0.067U
X_MXNpdl VPW NET0107 VPW VPW dpcnfetpd_ckt W=0.305U L=0.055U
X_MXP1 NET0110 NET0111 VNWC VNWC dpcpfetpu_ckt W=0.06U L=0.055U
X_MXP11 NET090 NET0143 VDDC VNWC dpcpfetpu_ckt W=0.06U L=0.055U
X_MXP12 VNWC NET095 VNWC VNWC dpcpfetpu_ckt W=0.06U L=0.055U
X_MXP13 NET086 NET087 VNWC VNWC dpcpfetpu_ckt W=0.06U L=0.055U
X_MXP14 NET082 NET083 VNWC VNWC dpcpfetpu_ckt W=0.06U L=0.055U
X_MXP15 VNWC NET0103 VNWC VNWC dpcpfetpu_ckt W=0.06U L=0.055U
X_MXP16 NET098 NET0151 VDDC VNWC dpcpfetpu_ckt W=0.06U L=0.055U
X_MXP17 NET074 NET0119 VDDC VNWC dpcpfetpu_ckt W=0.06U L=0.055U
X_MXP18 VNWC NET071 VNWC VNWC dpcpfetpu_ckt W=0.06U L=0.055U
X_MXP19 NET078 NET079 VNWC VNWC dpcpfetpu_ckt W=0.06U L=0.055U
X_MXP4 VNWC NET0107 VNWC VNWC dpcpfetpu_ckt W=0.06U L=0.055U
X_MXP9 NET0114 NET0163 VDDC VNWC dpcpfetpu_ckt W=0.06U L=0.055U
.ENDS SRAMdpw64d256CCCAP4
****
.SUBCKT SRAMdpw64d256CCICD032O BIT_A[0]_0 BIT_A[0]_1 BIT_A[0]_2 BIT_A[0]_3
+  BIT_A[0]_4 BIT_A[0]_5 BIT_A[0]_6 BIT_A[0]_7 BIT_A[0]_8 BIT_A[0]_9
+  BIT_A[0]_10 BIT_A[0]_11 BIT_A[0]_12 BIT_A[0]_13 BIT_A[0]_14 BIT_A[0]_15
+  BIT_A[0]_16 BIT_A[0]_17 BIT_A[0]_18 BIT_A[0]_19 BIT_A[0]_20 BIT_A[0]_21
+  BIT_A[0]_22 BIT_A[0]_23 BIT_A[0]_24 BIT_A[0]_25 BIT_A[0]_26 BIT_A[0]_27
+  BIT_A[0]_28 BIT_A[0]_29 BIT_A[0]_30 BIT_A[0]_31 BIT_A[1]_0 BIT_A[1]_1
+  BIT_A[1]_2 BIT_A[1]_3 BIT_A[1]_4 BIT_A[1]_5 BIT_A[1]_6 BIT_A[1]_7
+  BIT_A[1]_8 BIT_A[1]_9 BIT_A[1]_10 BIT_A[1]_11 BIT_A[1]_12 BIT_A[1]_13
+  BIT_A[1]_14 BIT_A[1]_15 BIT_A[1]_16 BIT_A[1]_17 BIT_A[1]_18 BIT_A[1]_19
+  BIT_A[1]_20 BIT_A[1]_21 BIT_A[1]_22 BIT_A[1]_23 BIT_A[1]_24 BIT_A[1]_25
+  BIT_A[1]_26 BIT_A[1]_27 BIT_A[1]_28 BIT_A[1]_29 BIT_A[1]_30 BIT_A[1]_31
+  BIT_A[2]_0 BIT_A[2]_1 BIT_A[2]_2 BIT_A[2]_3 BIT_A[2]_4 BIT_A[2]_5
+  BIT_A[2]_6 BIT_A[2]_7 BIT_A[2]_8 BIT_A[2]_9 BIT_A[2]_10 BIT_A[2]_11
+  BIT_A[2]_12 BIT_A[2]_13 BIT_A[2]_14 BIT_A[2]_15 BIT_A[2]_16 BIT_A[2]_17
+  BIT_A[2]_18 BIT_A[2]_19 BIT_A[2]_20 BIT_A[2]_21 BIT_A[2]_22 BIT_A[2]_23
+  BIT_A[2]_24 BIT_A[2]_25 BIT_A[2]_26 BIT_A[2]_27 BIT_A[2]_28 BIT_A[2]_29
+  BIT_A[2]_30 BIT_A[2]_31 BIT_A[3]_0 BIT_A[3]_1 BIT_A[3]_2 BIT_A[3]_3
+  BIT_A[3]_4 BIT_A[3]_5 BIT_A[3]_6 BIT_A[3]_7 BIT_A[3]_8 BIT_A[3]_9
+  BIT_A[3]_10 BIT_A[3]_11 BIT_A[3]_12 BIT_A[3]_13 BIT_A[3]_14 BIT_A[3]_15
+  BIT_A[3]_16 BIT_A[3]_17 BIT_A[3]_18 BIT_A[3]_19 BIT_A[3]_20 BIT_A[3]_21
+  BIT_A[3]_22 BIT_A[3]_23 BIT_A[3]_24 BIT_A[3]_25 BIT_A[3]_26 BIT_A[3]_27
+  BIT_A[3]_28 BIT_A[3]_29 BIT_A[3]_30 BIT_A[3]_31 BIT_B[0]_0 BIT_B[0]_1
+  BIT_B[0]_2 BIT_B[0]_3 BIT_B[0]_4 BIT_B[0]_5 BIT_B[0]_6 BIT_B[0]_7
+  BIT_B[0]_8 BIT_B[0]_9 BIT_B[0]_10 BIT_B[0]_11 BIT_B[0]_12 BIT_B[0]_13
+  BIT_B[0]_14 BIT_B[0]_15 BIT_B[0]_16 BIT_B[0]_17 BIT_B[0]_18 BIT_B[0]_19
+  BIT_B[0]_20 BIT_B[0]_21 BIT_B[0]_22 BIT_B[0]_23 BIT_B[0]_24 BIT_B[0]_25
+  BIT_B[0]_26 BIT_B[0]_27 BIT_B[0]_28 BIT_B[0]_29 BIT_B[0]_30 BIT_B[0]_31
+  BIT_B[1]_0 BIT_B[1]_1 BIT_B[1]_2 BIT_B[1]_3 BIT_B[1]_4 BIT_B[1]_5
+  BIT_B[1]_6 BIT_B[1]_7 BIT_B[1]_8 BIT_B[1]_9 BIT_B[1]_10 BIT_B[1]_11
+  BIT_B[1]_12 BIT_B[1]_13 BIT_B[1]_14 BIT_B[1]_15 BIT_B[1]_16 BIT_B[1]_17
+  BIT_B[1]_18 BIT_B[1]_19 BIT_B[1]_20 BIT_B[1]_21 BIT_B[1]_22 BIT_B[1]_23
+  BIT_B[1]_24 BIT_B[1]_25 BIT_B[1]_26 BIT_B[1]_27 BIT_B[1]_28 BIT_B[1]_29
+  BIT_B[1]_30 BIT_B[1]_31 BIT_B[2]_0 BIT_B[2]_1 BIT_B[2]_2 BIT_B[2]_3
+  BIT_B[2]_4 BIT_B[2]_5 BIT_B[2]_6 BIT_B[2]_7 BIT_B[2]_8 BIT_B[2]_9
+  BIT_B[2]_10 BIT_B[2]_11 BIT_B[2]_12 BIT_B[2]_13 BIT_B[2]_14 BIT_B[2]_15
+  BIT_B[2]_16 BIT_B[2]_17 BIT_B[2]_18 BIT_B[2]_19 BIT_B[2]_20 BIT_B[2]_21
+  BIT_B[2]_22 BIT_B[2]_23 BIT_B[2]_24 BIT_B[2]_25 BIT_B[2]_26 BIT_B[2]_27
+  BIT_B[2]_28 BIT_B[2]_29 BIT_B[2]_30 BIT_B[2]_31 BIT_B[3]_0 BIT_B[3]_1
+  BIT_B[3]_2 BIT_B[3]_3 BIT_B[3]_4 BIT_B[3]_5 BIT_B[3]_6 BIT_B[3]_7
+  BIT_B[3]_8 BIT_B[3]_9 BIT_B[3]_10 BIT_B[3]_11 BIT_B[3]_12 BIT_B[3]_13
+  BIT_B[3]_14 BIT_B[3]_15 BIT_B[3]_16 BIT_B[3]_17 BIT_B[3]_18 BIT_B[3]_19
+  BIT_B[3]_20 BIT_B[3]_21 BIT_B[3]_22 BIT_B[3]_23 BIT_B[3]_24 BIT_B[3]_25
+  BIT_B[3]_26 BIT_B[3]_27 BIT_B[3]_28 BIT_B[3]_29 BIT_B[3]_30 BIT_B[3]_31
+  DATAIN_A_0 DATAIN_A_1 DATAIN_A_2 DATAIN_A_3 DATAIN_A_4 DATAIN_A_5
+  DATAIN_A_6 DATAIN_A_7 DATAIN_A_8 DATAIN_A_9 DATAIN_A_10 DATAIN_A_11
+  DATAIN_A_12 DATAIN_A_13 DATAIN_A_14 DATAIN_A_15 DATAIN_A_16 DATAIN_A_17
+  DATAIN_A_18 DATAIN_A_19 DATAIN_A_20 DATAIN_A_21 DATAIN_A_22 DATAIN_A_23
+  DATAIN_A_24 DATAIN_A_25 DATAIN_A_26 DATAIN_A_27 DATAIN_A_28 DATAIN_A_29
+  DATAIN_A_30 DATAIN_A_31 DATAIN_B_0 DATAIN_B_1 DATAIN_B_2 DATAIN_B_3
+  DATAIN_B_4 DATAIN_B_5 DATAIN_B_6 DATAIN_B_7 DATAIN_B_8 DATAIN_B_9
+  DATAIN_B_10 DATAIN_B_11 DATAIN_B_12 DATAIN_B_13 DATAIN_B_14 DATAIN_B_15
+  DATAIN_B_16 DATAIN_B_17 DATAIN_B_18 DATAIN_B_19 DATAIN_B_20 DATAIN_B_21
+  DATAIN_B_22 DATAIN_B_23 DATAIN_B_24 DATAIN_B_25 DATAIN_B_26 DATAIN_B_27
+  DATAIN_B_28 DATAIN_B_29 DATAIN_B_30 DATAIN_B_31 GDL_A_0 GDL_A_1 GDL_A_2
+  GDL_A_3 GDL_A_4 GDL_A_5 GDL_A_6 GDL_A_7 GDL_A_8 GDL_A_9 GDL_A_10 GDL_A_11
+  GDL_A_12 GDL_A_13 GDL_A_14 GDL_A_15 GDL_A_16 GDL_A_17 GDL_A_18 GDL_A_19
+  GDL_A_20 GDL_A_21 GDL_A_22 GDL_A_23 GDL_A_24 GDL_A_25 GDL_A_26 GDL_A_27
+  GDL_A_28 GDL_A_29 GDL_A_30 GDL_A_31 GDL_B_0 GDL_B_1 GDL_B_2 GDL_B_3 GDL_B_4
+  GDL_B_5 GDL_B_6 GDL_B_7 GDL_B_8 GDL_B_9 GDL_B_10 GDL_B_11 GDL_B_12 GDL_B_13
+  GDL_B_14 GDL_B_15 GDL_B_16 GDL_B_17 GDL_B_18 GDL_B_19 GDL_B_20 GDL_B_21
+  GDL_B_22 GDL_B_23 GDL_B_24 GDL_B_25 GDL_B_26 GDL_B_27 GDL_B_28 GDL_B_29
+  GDL_B_30 GDL_B_31 NBIT_A[0]_0 NBIT_A[0]_1 NBIT_A[0]_2 NBIT_A[0]_3
+  NBIT_A[0]_4 NBIT_A[0]_5 NBIT_A[0]_6 NBIT_A[0]_7 NBIT_A[0]_8 NBIT_A[0]_9
+  NBIT_A[0]_10 NBIT_A[0]_11 NBIT_A[0]_12 NBIT_A[0]_13 NBIT_A[0]_14
+  NBIT_A[0]_15 NBIT_A[0]_16 NBIT_A[0]_17 NBIT_A[0]_18 NBIT_A[0]_19
+  NBIT_A[0]_20 NBIT_A[0]_21 NBIT_A[0]_22 NBIT_A[0]_23 NBIT_A[0]_24
+  NBIT_A[0]_25 NBIT_A[0]_26 NBIT_A[0]_27 NBIT_A[0]_28 NBIT_A[0]_29
+  NBIT_A[0]_30 NBIT_A[0]_31 NBIT_A[1]_0 NBIT_A[1]_1 NBIT_A[1]_2 NBIT_A[1]_3
+  NBIT_A[1]_4 NBIT_A[1]_5 NBIT_A[1]_6 NBIT_A[1]_7 NBIT_A[1]_8 NBIT_A[1]_9
+  NBIT_A[1]_10 NBIT_A[1]_11 NBIT_A[1]_12 NBIT_A[1]_13 NBIT_A[1]_14
+  NBIT_A[1]_15 NBIT_A[1]_16 NBIT_A[1]_17 NBIT_A[1]_18 NBIT_A[1]_19
+  NBIT_A[1]_20 NBIT_A[1]_21 NBIT_A[1]_22 NBIT_A[1]_23 NBIT_A[1]_24
+  NBIT_A[1]_25 NBIT_A[1]_26 NBIT_A[1]_27 NBIT_A[1]_28 NBIT_A[1]_29
+  NBIT_A[1]_30 NBIT_A[1]_31 NBIT_A[2]_0 NBIT_A[2]_1 NBIT_A[2]_2 NBIT_A[2]_3
+  NBIT_A[2]_4 NBIT_A[2]_5 NBIT_A[2]_6 NBIT_A[2]_7 NBIT_A[2]_8 NBIT_A[2]_9
+  NBIT_A[2]_10 NBIT_A[2]_11 NBIT_A[2]_12 NBIT_A[2]_13 NBIT_A[2]_14
+  NBIT_A[2]_15 NBIT_A[2]_16 NBIT_A[2]_17 NBIT_A[2]_18 NBIT_A[2]_19
+  NBIT_A[2]_20 NBIT_A[2]_21 NBIT_A[2]_22 NBIT_A[2]_23 NBIT_A[2]_24
+  NBIT_A[2]_25 NBIT_A[2]_26 NBIT_A[2]_27 NBIT_A[2]_28 NBIT_A[2]_29
+  NBIT_A[2]_30 NBIT_A[2]_31 NBIT_A[3]_0 NBIT_A[3]_1 NBIT_A[3]_2 NBIT_A[3]_3
+  NBIT_A[3]_4 NBIT_A[3]_5 NBIT_A[3]_6 NBIT_A[3]_7 NBIT_A[3]_8 NBIT_A[3]_9
+  NBIT_A[3]_10 NBIT_A[3]_11 NBIT_A[3]_12 NBIT_A[3]_13 NBIT_A[3]_14
+  NBIT_A[3]_15 NBIT_A[3]_16 NBIT_A[3]_17 NBIT_A[3]_18 NBIT_A[3]_19
+  NBIT_A[3]_20 NBIT_A[3]_21 NBIT_A[3]_22 NBIT_A[3]_23 NBIT_A[3]_24
+  NBIT_A[3]_25 NBIT_A[3]_26 NBIT_A[3]_27 NBIT_A[3]_28 NBIT_A[3]_29
+  NBIT_A[3]_30 NBIT_A[3]_31 NBIT_B[0]_0 NBIT_B[0]_1 NBIT_B[0]_2 NBIT_B[0]_3
+  NBIT_B[0]_4 NBIT_B[0]_5 NBIT_B[0]_6 NBIT_B[0]_7 NBIT_B[0]_8 NBIT_B[0]_9
+  NBIT_B[0]_10 NBIT_B[0]_11 NBIT_B[0]_12 NBIT_B[0]_13 NBIT_B[0]_14
+  NBIT_B[0]_15 NBIT_B[0]_16 NBIT_B[0]_17 NBIT_B[0]_18 NBIT_B[0]_19
+  NBIT_B[0]_20 NBIT_B[0]_21 NBIT_B[0]_22 NBIT_B[0]_23 NBIT_B[0]_24
+  NBIT_B[0]_25 NBIT_B[0]_26 NBIT_B[0]_27 NBIT_B[0]_28 NBIT_B[0]_29
+  NBIT_B[0]_30 NBIT_B[0]_31 NBIT_B[1]_0 NBIT_B[1]_1 NBIT_B[1]_2 NBIT_B[1]_3
+  NBIT_B[1]_4 NBIT_B[1]_5 NBIT_B[1]_6 NBIT_B[1]_7 NBIT_B[1]_8 NBIT_B[1]_9
+  NBIT_B[1]_10 NBIT_B[1]_11 NBIT_B[1]_12 NBIT_B[1]_13 NBIT_B[1]_14
+  NBIT_B[1]_15 NBIT_B[1]_16 NBIT_B[1]_17 NBIT_B[1]_18 NBIT_B[1]_19
+  NBIT_B[1]_20 NBIT_B[1]_21 NBIT_B[1]_22 NBIT_B[1]_23 NBIT_B[1]_24
+  NBIT_B[1]_25 NBIT_B[1]_26 NBIT_B[1]_27 NBIT_B[1]_28 NBIT_B[1]_29
+  NBIT_B[1]_30 NBIT_B[1]_31 NBIT_B[2]_0 NBIT_B[2]_1 NBIT_B[2]_2 NBIT_B[2]_3
+  NBIT_B[2]_4 NBIT_B[2]_5 NBIT_B[2]_6 NBIT_B[2]_7 NBIT_B[2]_8 NBIT_B[2]_9
+  NBIT_B[2]_10 NBIT_B[2]_11 NBIT_B[2]_12 NBIT_B[2]_13 NBIT_B[2]_14
+  NBIT_B[2]_15 NBIT_B[2]_16 NBIT_B[2]_17 NBIT_B[2]_18 NBIT_B[2]_19
+  NBIT_B[2]_20 NBIT_B[2]_21 NBIT_B[2]_22 NBIT_B[2]_23 NBIT_B[2]_24
+  NBIT_B[2]_25 NBIT_B[2]_26 NBIT_B[2]_27 NBIT_B[2]_28 NBIT_B[2]_29
+  NBIT_B[2]_30 NBIT_B[2]_31 NBIT_B[3]_0 NBIT_B[3]_1 NBIT_B[3]_2 NBIT_B[3]_3
+  NBIT_B[3]_4 NBIT_B[3]_5 NBIT_B[3]_6 NBIT_B[3]_7 NBIT_B[3]_8 NBIT_B[3]_9
+  NBIT_B[3]_10 NBIT_B[3]_11 NBIT_B[3]_12 NBIT_B[3]_13 NBIT_B[3]_14
+  NBIT_B[3]_15 NBIT_B[3]_16 NBIT_B[3]_17 NBIT_B[3]_18 NBIT_B[3]_19
+  NBIT_B[3]_20 NBIT_B[3]_21 NBIT_B[3]_22 NBIT_B[3]_23 NBIT_B[3]_24
+  NBIT_B[3]_25 NBIT_B[3]_26 NBIT_B[3]_27 NBIT_B[3]_28 NBIT_B[3]_29
+  NBIT_B[3]_30 NBIT_B[3]_31 NWGSEL_A_0 NWGSEL_A_1 NWGSEL_A_2 NWGSEL_A_3
+  NWGSEL_A_4 NWGSEL_A_5 NWGSEL_A_6 NWGSEL_A_7 NWGSEL_A_8 NWGSEL_A_9
+  NWGSEL_A_10 NWGSEL_A_11 NWGSEL_A_12 NWGSEL_A_13 NWGSEL_A_14 NWGSEL_A_15
+  NWGSEL_A_16 NWGSEL_A_17 NWGSEL_A_18 NWGSEL_A_19 NWGSEL_A_20 NWGSEL_A_21
+  NWGSEL_A_22 NWGSEL_A_23 NWGSEL_A_24 NWGSEL_A_25 NWGSEL_A_26 NWGSEL_A_27
+  NWGSEL_A_28 NWGSEL_A_29 NWGSEL_A_30 NWGSEL_A_31 NWGSEL_B_0 NWGSEL_B_1
+  NWGSEL_B_2 NWGSEL_B_3 NWGSEL_B_4 NWGSEL_B_5 NWGSEL_B_6 NWGSEL_B_7
+  NWGSEL_B_8 NWGSEL_B_9 NWGSEL_B_10 NWGSEL_B_11 NWGSEL_B_12 NWGSEL_B_13
+  NWGSEL_B_14 NWGSEL_B_15 NWGSEL_B_16 NWGSEL_B_17 NWGSEL_B_18 NWGSEL_B_19
+  NWGSEL_B_20 NWGSEL_B_21 NWGSEL_B_22 NWGSEL_B_23 NWGSEL_B_24 NWGSEL_B_25
+  NWGSEL_B_26 NWGSEL_B_27 NWGSEL_B_28 NWGSEL_B_29 NWGSEL_B_30 NWGSEL_B_31
+  VDDC VDDPE_0 VDDPE_1 VDDPE_2 VDDPE_3 VDDPE_4 VDDPE_5 VDDPE_6 VDDPE_7
+  VDDPE_8 VDDPE_9 VDDPE_10 VDDPE_11 VDDPE_12 VDDPE_13 VDDPE_14 VDDPE_15
+  VDDPE_16 VDDPE_17 VDDPE_18 VDDPE_19 VDDPE_20 VDDPE_21 VDDPE_22 VDDPE_23
+  VDDPE_24 VDDPE_25 VDDPE_26 VDDPE_27 VDDPE_28 VDDPE_29 VDDPE_30 VDDPE_31 VPW
** SRAMdpw64d256CCICD032O: 1536 flat devices **
XCCCAP4LSB0 BIT_A[0]_31 BIT_A[1]_31 BIT_A[2]_31 BIT_A[3]_31 BIT_B[0]_31
+  BIT_B[1]_31 BIT_B[2]_31 BIT_B[3]_31 DATAIN_A_31 DATAIN_B_31 GDL_A_31
+  GDL_B_31 NBIT_A[0]_31 NBIT_A[1]_31 NBIT_A[2]_31 NBIT_A[3]_31 NBIT_B[0]_31
+  NBIT_B[1]_31 NBIT_B[2]_31 NBIT_B[3]_31 NWGSEL_A_31 NWGSEL_B_31 VDDC VDDC
+  VDDPE_31 VDDC VPW VPW SRAMdpw64d256CCCAP4
XCCCAP4LSB1 BIT_A[0]_30 BIT_A[1]_30 BIT_A[2]_30 BIT_A[3]_30 BIT_B[0]_30
+  BIT_B[1]_30 BIT_B[2]_30 BIT_B[3]_30 DATAIN_A_30 DATAIN_B_30 GDL_A_30
+  GDL_B_30 NBIT_A[0]_30 NBIT_A[1]_30 NBIT_A[2]_30 NBIT_A[3]_30 NBIT_B[0]_30
+  NBIT_B[1]_30 NBIT_B[2]_30 NBIT_B[3]_30 NWGSEL_A_30 NWGSEL_B_30 VDDC VDDC
+  VDDPE_30 VDDC VPW VPW SRAMdpw64d256CCCAP4
XCCCAP4LSB2 BIT_A[0]_29 BIT_A[1]_29 BIT_A[2]_29 BIT_A[3]_29 BIT_B[0]_29
+  BIT_B[1]_29 BIT_B[2]_29 BIT_B[3]_29 DATAIN_A_29 DATAIN_B_29 GDL_A_29
+  GDL_B_29 NBIT_A[0]_29 NBIT_A[1]_29 NBIT_A[2]_29 NBIT_A[3]_29 NBIT_B[0]_29
+  NBIT_B[1]_29 NBIT_B[2]_29 NBIT_B[3]_29 NWGSEL_A_29 NWGSEL_B_29 VDDC VDDC
+  VDDPE_29 VDDC VPW VPW SRAMdpw64d256CCCAP4
XCCCAP4LSB3 BIT_A[0]_28 BIT_A[1]_28 BIT_A[2]_28 BIT_A[3]_28 BIT_B[0]_28
+  BIT_B[1]_28 BIT_B[2]_28 BIT_B[3]_28 DATAIN_A_28 DATAIN_B_28 GDL_A_28
+  GDL_B_28 NBIT_A[0]_28 NBIT_A[1]_28 NBIT_A[2]_28 NBIT_A[3]_28 NBIT_B[0]_28
+  NBIT_B[1]_28 NBIT_B[2]_28 NBIT_B[3]_28 NWGSEL_A_28 NWGSEL_B_28 VDDC VDDC
+  VDDPE_28 VDDC VPW VPW SRAMdpw64d256CCCAP4
XCCCAP4MSB0 BIT_A[0]_3 BIT_A[1]_3 BIT_A[2]_3 BIT_A[3]_3 BIT_B[0]_3 BIT_B[1]_3
+  BIT_B[2]_3 BIT_B[3]_3 DATAIN_A_3 DATAIN_B_3 GDL_A_3 GDL_B_3 NBIT_A[0]_3
+  NBIT_A[1]_3 NBIT_A[2]_3 NBIT_A[3]_3 NBIT_B[0]_3 NBIT_B[1]_3 NBIT_B[2]_3
+  NBIT_B[3]_3 NWGSEL_A_3 NWGSEL_B_3 VDDC VDDC VDDPE_3 VDDC VPW VPW
+  SRAMdpw64d256CCCAP4
XCCCAP4MSB1 BIT_A[0]_2 BIT_A[1]_2 BIT_A[2]_2 BIT_A[3]_2 BIT_B[0]_2 BIT_B[1]_2
+  BIT_B[2]_2 BIT_B[3]_2 DATAIN_A_2 DATAIN_B_2 GDL_A_2 GDL_B_2 NBIT_A[0]_2
+  NBIT_A[1]_2 NBIT_A[2]_2 NBIT_A[3]_2 NBIT_B[0]_2 NBIT_B[1]_2 NBIT_B[2]_2
+  NBIT_B[3]_2 NWGSEL_A_2 NWGSEL_B_2 VDDC VDDC VDDPE_2 VDDC VPW VPW
+  SRAMdpw64d256CCCAP4
XCCCAP4MSB2 BIT_A[0]_1 BIT_A[1]_1 BIT_A[2]_1 BIT_A[3]_1 BIT_B[0]_1 BIT_B[1]_1
+  BIT_B[2]_1 BIT_B[3]_1 DATAIN_A_1 DATAIN_B_1 GDL_A_1 GDL_B_1 NBIT_A[0]_1
+  NBIT_A[1]_1 NBIT_A[2]_1 NBIT_A[3]_1 NBIT_B[0]_1 NBIT_B[1]_1 NBIT_B[2]_1
+  NBIT_B[3]_1 NWGSEL_A_1 NWGSEL_B_1 VDDC VDDC VDDPE_1 VDDC VPW VPW
+  SRAMdpw64d256CCCAP4
XCCCAP4MSB3 BIT_A[0]_0 BIT_A[1]_0 BIT_A[2]_0 BIT_A[3]_0 BIT_B[0]_0 BIT_B[1]_0
+  BIT_B[2]_0 BIT_B[3]_0 DATAIN_A_0 DATAIN_B_0 GDL_A_0 GDL_B_0 NBIT_A[0]_0
+  NBIT_A[1]_0 NBIT_A[2]_0 NBIT_A[3]_0 NBIT_B[0]_0 NBIT_B[1]_0 NBIT_B[2]_0
+  NBIT_B[3]_0 NWGSEL_A_0 NWGSEL_B_0 VDDC VDDC VDDPE_0 VDDC VPW VPW
+  SRAMdpw64d256CCCAP4
XCCCAP4[10] BIT_A[0]_21 BIT_A[1]_21 BIT_A[2]_21 BIT_A[3]_21 BIT_B[0]_21
+  BIT_B[1]_21 BIT_B[2]_21 BIT_B[3]_21 DATAIN_A_21 DATAIN_B_21 GDL_A_21
+  GDL_B_21 NBIT_A[0]_21 NBIT_A[1]_21 NBIT_A[2]_21 NBIT_A[3]_21 NBIT_B[0]_21
+  NBIT_B[1]_21 NBIT_B[2]_21 NBIT_B[3]_21 NWGSEL_A_21 NWGSEL_B_21 VDDC VDDC
+  VDDPE_21 VDDC VPW VPW SRAMdpw64d256CCCAP4
XCCCAP4[11] BIT_A[0]_20 BIT_A[1]_20 BIT_A[2]_20 BIT_A[3]_20 BIT_B[0]_20
+  BIT_B[1]_20 BIT_B[2]_20 BIT_B[3]_20 DATAIN_A_20 DATAIN_B_20 GDL_A_20
+  GDL_B_20 NBIT_A[0]_20 NBIT_A[1]_20 NBIT_A[2]_20 NBIT_A[3]_20 NBIT_B[0]_20
+  NBIT_B[1]_20 NBIT_B[2]_20 NBIT_B[3]_20 NWGSEL_A_20 NWGSEL_B_20 VDDC VDDC
+  VDDPE_20 VDDC VPW VPW SRAMdpw64d256CCCAP4
XCCCAP4[12] BIT_A[0]_19 BIT_A[1]_19 BIT_A[2]_19 BIT_A[3]_19 BIT_B[0]_19
+  BIT_B[1]_19 BIT_B[2]_19 BIT_B[3]_19 DATAIN_A_19 DATAIN_B_19 GDL_A_19
+  GDL_B_19 NBIT_A[0]_19 NBIT_A[1]_19 NBIT_A[2]_19 NBIT_A[3]_19 NBIT_B[0]_19
+  NBIT_B[1]_19 NBIT_B[2]_19 NBIT_B[3]_19 NWGSEL_A_19 NWGSEL_B_19 VDDC VDDC
+  VDDPE_19 VDDC VPW VPW SRAMdpw64d256CCCAP4
XCCCAP4[13] BIT_A[0]_18 BIT_A[1]_18 BIT_A[2]_18 BIT_A[3]_18 BIT_B[0]_18
+  BIT_B[1]_18 BIT_B[2]_18 BIT_B[3]_18 DATAIN_A_18 DATAIN_B_18 GDL_A_18
+  GDL_B_18 NBIT_A[0]_18 NBIT_A[1]_18 NBIT_A[2]_18 NBIT_A[3]_18 NBIT_B[0]_18
+  NBIT_B[1]_18 NBIT_B[2]_18 NBIT_B[3]_18 NWGSEL_A_18 NWGSEL_B_18 VDDC VDDC
+  VDDPE_18 VDDC VPW VPW SRAMdpw64d256CCCAP4
XCCCAP4[14] BIT_A[0]_17 BIT_A[1]_17 BIT_A[2]_17 BIT_A[3]_17 BIT_B[0]_17
+  BIT_B[1]_17 BIT_B[2]_17 BIT_B[3]_17 DATAIN_A_17 DATAIN_B_17 GDL_A_17
+  GDL_B_17 NBIT_A[0]_17 NBIT_A[1]_17 NBIT_A[2]_17 NBIT_A[3]_17 NBIT_B[0]_17
+  NBIT_B[1]_17 NBIT_B[2]_17 NBIT_B[3]_17 NWGSEL_A_17 NWGSEL_B_17 VDDC VDDC
+  VDDPE_17 VDDC VPW VPW SRAMdpw64d256CCCAP4
XCCCAP4[15] BIT_A[0]_16 BIT_A[1]_16 BIT_A[2]_16 BIT_A[3]_16 BIT_B[0]_16
+  BIT_B[1]_16 BIT_B[2]_16 BIT_B[3]_16 DATAIN_A_16 DATAIN_B_16 GDL_A_16
+  GDL_B_16 NBIT_A[0]_16 NBIT_A[1]_16 NBIT_A[2]_16 NBIT_A[3]_16 NBIT_B[0]_16
+  NBIT_B[1]_16 NBIT_B[2]_16 NBIT_B[3]_16 NWGSEL_A_16 NWGSEL_B_16 VDDC VDDC
+  VDDPE_16 VDDC VPW VPW SRAMdpw64d256CCCAP4
XCCCAP4[16] BIT_A[0]_15 BIT_A[1]_15 BIT_A[2]_15 BIT_A[3]_15 BIT_B[0]_15
+  BIT_B[1]_15 BIT_B[2]_15 BIT_B[3]_15 DATAIN_A_15 DATAIN_B_15 GDL_A_15
+  GDL_B_15 NBIT_A[0]_15 NBIT_A[1]_15 NBIT_A[2]_15 NBIT_A[3]_15 NBIT_B[0]_15
+  NBIT_B[1]_15 NBIT_B[2]_15 NBIT_B[3]_15 NWGSEL_A_15 NWGSEL_B_15 VDDC VDDC
+  VDDPE_15 VDDC VPW VPW SRAMdpw64d256CCCAP4
XCCCAP4[17] BIT_A[0]_14 BIT_A[1]_14 BIT_A[2]_14 BIT_A[3]_14 BIT_B[0]_14
+  BIT_B[1]_14 BIT_B[2]_14 BIT_B[3]_14 DATAIN_A_14 DATAIN_B_14 GDL_A_14
+  GDL_B_14 NBIT_A[0]_14 NBIT_A[1]_14 NBIT_A[2]_14 NBIT_A[3]_14 NBIT_B[0]_14
+  NBIT_B[1]_14 NBIT_B[2]_14 NBIT_B[3]_14 NWGSEL_A_14 NWGSEL_B_14 VDDC VDDC
+  VDDPE_14 VDDC VPW VPW SRAMdpw64d256CCCAP4
XCCCAP4[18] BIT_A[0]_13 BIT_A[1]_13 BIT_A[2]_13 BIT_A[3]_13 BIT_B[0]_13
+  BIT_B[1]_13 BIT_B[2]_13 BIT_B[3]_13 DATAIN_A_13 DATAIN_B_13 GDL_A_13
+  GDL_B_13 NBIT_A[0]_13 NBIT_A[1]_13 NBIT_A[2]_13 NBIT_A[3]_13 NBIT_B[0]_13
+  NBIT_B[1]_13 NBIT_B[2]_13 NBIT_B[3]_13 NWGSEL_A_13 NWGSEL_B_13 VDDC VDDC
+  VDDPE_13 VDDC VPW VPW SRAMdpw64d256CCCAP4
XCCCAP4[19] BIT_A[0]_12 BIT_A[1]_12 BIT_A[2]_12 BIT_A[3]_12 BIT_B[0]_12
+  BIT_B[1]_12 BIT_B[2]_12 BIT_B[3]_12 DATAIN_A_12 DATAIN_B_12 GDL_A_12
+  GDL_B_12 NBIT_A[0]_12 NBIT_A[1]_12 NBIT_A[2]_12 NBIT_A[3]_12 NBIT_B[0]_12
+  NBIT_B[1]_12 NBIT_B[2]_12 NBIT_B[3]_12 NWGSEL_A_12 NWGSEL_B_12 VDDC VDDC
+  VDDPE_12 VDDC VPW VPW SRAMdpw64d256CCCAP4
XCCCAP4[20] BIT_A[0]_11 BIT_A[1]_11 BIT_A[2]_11 BIT_A[3]_11 BIT_B[0]_11
+  BIT_B[1]_11 BIT_B[2]_11 BIT_B[3]_11 DATAIN_A_11 DATAIN_B_11 GDL_A_11
+  GDL_B_11 NBIT_A[0]_11 NBIT_A[1]_11 NBIT_A[2]_11 NBIT_A[3]_11 NBIT_B[0]_11
+  NBIT_B[1]_11 NBIT_B[2]_11 NBIT_B[3]_11 NWGSEL_A_11 NWGSEL_B_11 VDDC VDDC
+  VDDPE_11 VDDC VPW VPW SRAMdpw64d256CCCAP4
XCCCAP4[21] BIT_A[0]_10 BIT_A[1]_10 BIT_A[2]_10 BIT_A[3]_10 BIT_B[0]_10
+  BIT_B[1]_10 BIT_B[2]_10 BIT_B[3]_10 DATAIN_A_10 DATAIN_B_10 GDL_A_10
+  GDL_B_10 NBIT_A[0]_10 NBIT_A[1]_10 NBIT_A[2]_10 NBIT_A[3]_10 NBIT_B[0]_10
+  NBIT_B[1]_10 NBIT_B[2]_10 NBIT_B[3]_10 NWGSEL_A_10 NWGSEL_B_10 VDDC VDDC
+  VDDPE_10 VDDC VPW VPW SRAMdpw64d256CCCAP4
XCCCAP4[22] BIT_A[0]_9 BIT_A[1]_9 BIT_A[2]_9 BIT_A[3]_9 BIT_B[0]_9 BIT_B[1]_9
+  BIT_B[2]_9 BIT_B[3]_9 DATAIN_A_9 DATAIN_B_9 GDL_A_9 GDL_B_9 NBIT_A[0]_9
+  NBIT_A[1]_9 NBIT_A[2]_9 NBIT_A[3]_9 NBIT_B[0]_9 NBIT_B[1]_9 NBIT_B[2]_9
+  NBIT_B[3]_9 NWGSEL_A_9 NWGSEL_B_9 VDDC VDDC VDDPE_9 VDDC VPW VPW
+  SRAMdpw64d256CCCAP4
XCCCAP4[23] BIT_A[0]_8 BIT_A[1]_8 BIT_A[2]_8 BIT_A[3]_8 BIT_B[0]_8 BIT_B[1]_8
+  BIT_B[2]_8 BIT_B[3]_8 DATAIN_A_8 DATAIN_B_8 GDL_A_8 GDL_B_8 NBIT_A[0]_8
+  NBIT_A[1]_8 NBIT_A[2]_8 NBIT_A[3]_8 NBIT_B[0]_8 NBIT_B[1]_8 NBIT_B[2]_8
+  NBIT_B[3]_8 NWGSEL_A_8 NWGSEL_B_8 VDDC VDDC VDDPE_8 VDDC VPW VPW
+  SRAMdpw64d256CCCAP4
XCCCAP4[24] BIT_A[0]_7 BIT_A[1]_7 BIT_A[2]_7 BIT_A[3]_7 BIT_B[0]_7 BIT_B[1]_7
+  BIT_B[2]_7 BIT_B[3]_7 DATAIN_A_7 DATAIN_B_7 GDL_A_7 GDL_B_7 NBIT_A[0]_7
+  NBIT_A[1]_7 NBIT_A[2]_7 NBIT_A[3]_7 NBIT_B[0]_7 NBIT_B[1]_7 NBIT_B[2]_7
+  NBIT_B[3]_7 NWGSEL_A_7 NWGSEL_B_7 VDDC VDDC VDDPE_7 VDDC VPW VPW
+  SRAMdpw64d256CCCAP4
XCCCAP4[25] BIT_A[0]_6 BIT_A[1]_6 BIT_A[2]_6 BIT_A[3]_6 BIT_B[0]_6 BIT_B[1]_6
+  BIT_B[2]_6 BIT_B[3]_6 DATAIN_A_6 DATAIN_B_6 GDL_A_6 GDL_B_6 NBIT_A[0]_6
+  NBIT_A[1]_6 NBIT_A[2]_6 NBIT_A[3]_6 NBIT_B[0]_6 NBIT_B[1]_6 NBIT_B[2]_6
+  NBIT_B[3]_6 NWGSEL_A_6 NWGSEL_B_6 VDDC VDDC VDDPE_6 VDDC VPW VPW
+  SRAMdpw64d256CCCAP4
XCCCAP4[26] BIT_A[0]_5 BIT_A[1]_5 BIT_A[2]_5 BIT_A[3]_5 BIT_B[0]_5 BIT_B[1]_5
+  BIT_B[2]_5 BIT_B[3]_5 DATAIN_A_5 DATAIN_B_5 GDL_A_5 GDL_B_5 NBIT_A[0]_5
+  NBIT_A[1]_5 NBIT_A[2]_5 NBIT_A[3]_5 NBIT_B[0]_5 NBIT_B[1]_5 NBIT_B[2]_5
+  NBIT_B[3]_5 NWGSEL_A_5 NWGSEL_B_5 VDDC VDDC VDDPE_5 VDDC VPW VPW
+  SRAMdpw64d256CCCAP4
XCCCAP4[27] BIT_A[0]_4 BIT_A[1]_4 BIT_A[2]_4 BIT_A[3]_4 BIT_B[0]_4 BIT_B[1]_4
+  BIT_B[2]_4 BIT_B[3]_4 DATAIN_A_4 DATAIN_B_4 GDL_A_4 GDL_B_4 NBIT_A[0]_4
+  NBIT_A[1]_4 NBIT_A[2]_4 NBIT_A[3]_4 NBIT_B[0]_4 NBIT_B[1]_4 NBIT_B[2]_4
+  NBIT_B[3]_4 NWGSEL_A_4 NWGSEL_B_4 VDDC VDDC VDDPE_4 VDDC VPW VPW
+  SRAMdpw64d256CCCAP4
XCCCAP4[4] BIT_A[0]_27 BIT_A[1]_27 BIT_A[2]_27 BIT_A[3]_27 BIT_B[0]_27
+  BIT_B[1]_27 BIT_B[2]_27 BIT_B[3]_27 DATAIN_A_27 DATAIN_B_27 GDL_A_27
+  GDL_B_27 NBIT_A[0]_27 NBIT_A[1]_27 NBIT_A[2]_27 NBIT_A[3]_27 NBIT_B[0]_27
+  NBIT_B[1]_27 NBIT_B[2]_27 NBIT_B[3]_27 NWGSEL_A_27 NWGSEL_B_27 VDDC VDDC
+  VDDPE_27 VDDC VPW VPW SRAMdpw64d256CCCAP4
XCCCAP4[5] BIT_A[0]_26 BIT_A[1]_26 BIT_A[2]_26 BIT_A[3]_26 BIT_B[0]_26
+  BIT_B[1]_26 BIT_B[2]_26 BIT_B[3]_26 DATAIN_A_26 DATAIN_B_26 GDL_A_26
+  GDL_B_26 NBIT_A[0]_26 NBIT_A[1]_26 NBIT_A[2]_26 NBIT_A[3]_26 NBIT_B[0]_26
+  NBIT_B[1]_26 NBIT_B[2]_26 NBIT_B[3]_26 NWGSEL_A_26 NWGSEL_B_26 VDDC VDDC
+  VDDPE_26 VDDC VPW VPW SRAMdpw64d256CCCAP4
XCCCAP4[6] BIT_A[0]_25 BIT_A[1]_25 BIT_A[2]_25 BIT_A[3]_25 BIT_B[0]_25
+  BIT_B[1]_25 BIT_B[2]_25 BIT_B[3]_25 DATAIN_A_25 DATAIN_B_25 GDL_A_25
+  GDL_B_25 NBIT_A[0]_25 NBIT_A[1]_25 NBIT_A[2]_25 NBIT_A[3]_25 NBIT_B[0]_25
+  NBIT_B[1]_25 NBIT_B[2]_25 NBIT_B[3]_25 NWGSEL_A_25 NWGSEL_B_25 VDDC VDDC
+  VDDPE_25 VDDC VPW VPW SRAMdpw64d256CCCAP4
XCCCAP4[7] BIT_A[0]_24 BIT_A[1]_24 BIT_A[2]_24 BIT_A[3]_24 BIT_B[0]_24
+  BIT_B[1]_24 BIT_B[2]_24 BIT_B[3]_24 DATAIN_A_24 DATAIN_B_24 GDL_A_24
+  GDL_B_24 NBIT_A[0]_24 NBIT_A[1]_24 NBIT_A[2]_24 NBIT_A[3]_24 NBIT_B[0]_24
+  NBIT_B[1]_24 NBIT_B[2]_24 NBIT_B[3]_24 NWGSEL_A_24 NWGSEL_B_24 VDDC VDDC
+  VDDPE_24 VDDC VPW VPW SRAMdpw64d256CCCAP4
XCCCAP4[8] BIT_A[0]_23 BIT_A[1]_23 BIT_A[2]_23 BIT_A[3]_23 BIT_B[0]_23
+  BIT_B[1]_23 BIT_B[2]_23 BIT_B[3]_23 DATAIN_A_23 DATAIN_B_23 GDL_A_23
+  GDL_B_23 NBIT_A[0]_23 NBIT_A[1]_23 NBIT_A[2]_23 NBIT_A[3]_23 NBIT_B[0]_23
+  NBIT_B[1]_23 NBIT_B[2]_23 NBIT_B[3]_23 NWGSEL_A_23 NWGSEL_B_23 VDDC VDDC
+  VDDPE_23 VDDC VPW VPW SRAMdpw64d256CCCAP4
XCCCAP4[9] BIT_A[0]_22 BIT_A[1]_22 BIT_A[2]_22 BIT_A[3]_22 BIT_B[0]_22
+  BIT_B[1]_22 BIT_B[2]_22 BIT_B[3]_22 DATAIN_A_22 DATAIN_B_22 GDL_A_22
+  GDL_B_22 NBIT_A[0]_22 NBIT_A[1]_22 NBIT_A[2]_22 NBIT_A[3]_22 NBIT_B[0]_22
+  NBIT_B[1]_22 NBIT_B[2]_22 NBIT_B[3]_22 NWGSEL_A_22 NWGSEL_B_22 VDDC VDDC
+  VDDPE_22 VDDC VPW VPW SRAMdpw64d256CCCAP4
.ENDS SRAMdpw64d256CCICD032O
****
.SUBCKT SRAMdpw64d256FCWDEDGE ACTCLMP_A ACTCLMP_B ADDR_A[0] ADDR_A[1]
+  ADDR_B[0] ADDR_B[1] BNK_A BNK_B CLK_A CLK_B DBL_A DBL_B LOG0_DBL_A
+  LOG0_DBL_B NACT NDFTRAMBYP_A NDFTRAMBYP_B NHDR_WL_A NHDR_WL_B NRDT_A NRDT_B
+  NRETHVT NRETNVT NWL_CLK_A NWL_CLK_B NXPDEC1_A[0] NXPDEC1_A[1] NXPDEC1_A[2]
+  NXPDEC1_A[3] NXPDEC1_A[4] NXPDEC1_A[5] NXPDEC1_A[6] NXPDEC1_A[7]
+  NXPDEC1_B[0] NXPDEC1_B[1] NXPDEC1_B[2] NXPDEC1_B[3] NXPDEC1_B[4]
+  NXPDEC1_B[5] NXPDEC1_B[6] NXPDEC1_B[7] NXPDEC2_A[0] NXPDEC2_A[1]
+  NXPDEC2_A[2] NXPDEC2_A[3] NXPDEC2_A[4] NXPDEC2_A[5] NXPDEC2_A[6]
+  NXPDEC2_A[7] NXPDEC2_B[0] NXPDEC2_B[1] NXPDEC2_B[2] NXPDEC2_B[3]
+  NXPDEC2_B[4] NXPDEC2_B[5] NXPDEC2_B[6] NXPDEC2_B[7] NXPDEC3_A[0]
+  NXPDEC3_A[1] NXPDEC3_A[2] NXPDEC3_A[3] NXPDEC3_B[0] NXPDEC3_B[1]
+  NXPDEC3_B[2] NXPDEC3_B[3] RETA[0] RETA[1] RETB[0] RETB[1] RET_SHR_DEC1A[0]
+  RET_SHR_DEC1A[1] RET_SHR_DEC1B[0] RET_SHR_DEC1B[1] RE_A RE_B VDDC VDDCA1
+  VDDCA2 VDDCB1 VDDCB2 VDDCE VDDPE VNWC VNWP VPW VSSE WE_A WE_B WRA_MA WRB_MA
+  WTE_A WTE_B
** SRAMdpw64d256FCWDEDGE: 8 flat devices **
X_MXP0 VDDCB2 NHDR_WL_B VDDCE VNWC P11LL_CKT W=6.24U L=0.04U
X_MXP1 VDDCA1 NHDR_WL_A VDDCE VNWC P11LL_CKT W=6.24U L=0.04U
X_MXP10 RET_SHR_DEC1B[1] RETB[1] VDDPE VNWC P11LL_CKT W=3.555U L=0.04U
X_MXP4 VDDCA2 NHDR_WL_A VDDCE VNWC P11LL_CKT W=6.225U L=0.04U
X_MXP5 VDDCB1 NHDR_WL_B VDDCE VNWC P11LL_CKT W=6.225U L=0.04U
X_MXP6 RET_SHR_DEC1A[1] RETA[1] VDDPE VNWC P11LL_CKT W=3.57U L=0.04U
X_MXP7 RET_SHR_DEC1A[0] RETA[0] VDDPE VNWC P11LL_CKT W=3.555U L=0.04U
X_MXP9 RET_SHR_DEC1B[0] RETB[0] VDDPE VNWC P11LL_CKT W=3.57U L=0.04U
.ENDS SRAMdpw64d256FCWDEDGE
****
.SUBCKT SRAMdpw64d256CCICD32320 ACTCLMP_A ACTCLMP_B ADDR_A[0] ADDR_A[1]
+  ADDR_B[0] ADDR_B[1] BIT_A[0]_0 BIT_A[0]_1 BIT_A[0]_2 BIT_A[0]_3 BIT_A[0]_4
+  BIT_A[0]_5 BIT_A[0]_6 BIT_A[0]_7 BIT_A[0]_8 BIT_A[0]_9 BIT_A[0]_10
+  BIT_A[0]_11 BIT_A[0]_12 BIT_A[0]_13 BIT_A[0]_14 BIT_A[0]_15 BIT_A[0]_16
+  BIT_A[0]_17 BIT_A[0]_18 BIT_A[0]_19 BIT_A[0]_20 BIT_A[0]_21 BIT_A[0]_22
+  BIT_A[0]_23 BIT_A[0]_24 BIT_A[0]_25 BIT_A[0]_26 BIT_A[0]_27 BIT_A[0]_28
+  BIT_A[0]_29 BIT_A[0]_30 BIT_A[0]_31 BIT_A[0]_32 BIT_A[0]_33 BIT_A[0]_34
+  BIT_A[0]_35 BIT_A[0]_36 BIT_A[0]_37 BIT_A[0]_38 BIT_A[0]_39 BIT_A[0]_40
+  BIT_A[0]_41 BIT_A[0]_42 BIT_A[0]_43 BIT_A[0]_44 BIT_A[0]_45 BIT_A[0]_46
+  BIT_A[0]_47 BIT_A[0]_48 BIT_A[0]_49 BIT_A[0]_50 BIT_A[0]_51 BIT_A[0]_52
+  BIT_A[0]_53 BIT_A[0]_54 BIT_A[0]_55 BIT_A[0]_56 BIT_A[0]_57 BIT_A[0]_58
+  BIT_A[0]_59 BIT_A[0]_60 BIT_A[0]_61 BIT_A[0]_62 BIT_A[0]_63 BIT_A[1]_0
+  BIT_A[1]_1 BIT_A[1]_2 BIT_A[1]_3 BIT_A[1]_4 BIT_A[1]_5 BIT_A[1]_6
+  BIT_A[1]_7 BIT_A[1]_8 BIT_A[1]_9 BIT_A[1]_10 BIT_A[1]_11 BIT_A[1]_12
+  BIT_A[1]_13 BIT_A[1]_14 BIT_A[1]_15 BIT_A[1]_16 BIT_A[1]_17 BIT_A[1]_18
+  BIT_A[1]_19 BIT_A[1]_20 BIT_A[1]_21 BIT_A[1]_22 BIT_A[1]_23 BIT_A[1]_24
+  BIT_A[1]_25 BIT_A[1]_26 BIT_A[1]_27 BIT_A[1]_28 BIT_A[1]_29 BIT_A[1]_30
+  BIT_A[1]_31 BIT_A[1]_32 BIT_A[1]_33 BIT_A[1]_34 BIT_A[1]_35 BIT_A[1]_36
+  BIT_A[1]_37 BIT_A[1]_38 BIT_A[1]_39 BIT_A[1]_40 BIT_A[1]_41 BIT_A[1]_42
+  BIT_A[1]_43 BIT_A[1]_44 BIT_A[1]_45 BIT_A[1]_46 BIT_A[1]_47 BIT_A[1]_48
+  BIT_A[1]_49 BIT_A[1]_50 BIT_A[1]_51 BIT_A[1]_52 BIT_A[1]_53 BIT_A[1]_54
+  BIT_A[1]_55 BIT_A[1]_56 BIT_A[1]_57 BIT_A[1]_58 BIT_A[1]_59 BIT_A[1]_60
+  BIT_A[1]_61 BIT_A[1]_62 BIT_A[1]_63 BIT_A[2]_0 BIT_A[2]_1 BIT_A[2]_2
+  BIT_A[2]_3 BIT_A[2]_4 BIT_A[2]_5 BIT_A[2]_6 BIT_A[2]_7 BIT_A[2]_8
+  BIT_A[2]_9 BIT_A[2]_10 BIT_A[2]_11 BIT_A[2]_12 BIT_A[2]_13 BIT_A[2]_14
+  BIT_A[2]_15 BIT_A[2]_16 BIT_A[2]_17 BIT_A[2]_18 BIT_A[2]_19 BIT_A[2]_20
+  BIT_A[2]_21 BIT_A[2]_22 BIT_A[2]_23 BIT_A[2]_24 BIT_A[2]_25 BIT_A[2]_26
+  BIT_A[2]_27 BIT_A[2]_28 BIT_A[2]_29 BIT_A[2]_30 BIT_A[2]_31 BIT_A[2]_32
+  BIT_A[2]_33 BIT_A[2]_34 BIT_A[2]_35 BIT_A[2]_36 BIT_A[2]_37 BIT_A[2]_38
+  BIT_A[2]_39 BIT_A[2]_40 BIT_A[2]_41 BIT_A[2]_42 BIT_A[2]_43 BIT_A[2]_44
+  BIT_A[2]_45 BIT_A[2]_46 BIT_A[2]_47 BIT_A[2]_48 BIT_A[2]_49 BIT_A[2]_50
+  BIT_A[2]_51 BIT_A[2]_52 BIT_A[2]_53 BIT_A[2]_54 BIT_A[2]_55 BIT_A[2]_56
+  BIT_A[2]_57 BIT_A[2]_58 BIT_A[2]_59 BIT_A[2]_60 BIT_A[2]_61 BIT_A[2]_62
+  BIT_A[2]_63 BIT_A[3]_0 BIT_A[3]_1 BIT_A[3]_2 BIT_A[3]_3 BIT_A[3]_4
+  BIT_A[3]_5 BIT_A[3]_6 BIT_A[3]_7 BIT_A[3]_8 BIT_A[3]_9 BIT_A[3]_10
+  BIT_A[3]_11 BIT_A[3]_12 BIT_A[3]_13 BIT_A[3]_14 BIT_A[3]_15 BIT_A[3]_16
+  BIT_A[3]_17 BIT_A[3]_18 BIT_A[3]_19 BIT_A[3]_20 BIT_A[3]_21 BIT_A[3]_22
+  BIT_A[3]_23 BIT_A[3]_24 BIT_A[3]_25 BIT_A[3]_26 BIT_A[3]_27 BIT_A[3]_28
+  BIT_A[3]_29 BIT_A[3]_30 BIT_A[3]_31 BIT_A[3]_32 BIT_A[3]_33 BIT_A[3]_34
+  BIT_A[3]_35 BIT_A[3]_36 BIT_A[3]_37 BIT_A[3]_38 BIT_A[3]_39 BIT_A[3]_40
+  BIT_A[3]_41 BIT_A[3]_42 BIT_A[3]_43 BIT_A[3]_44 BIT_A[3]_45 BIT_A[3]_46
+  BIT_A[3]_47 BIT_A[3]_48 BIT_A[3]_49 BIT_A[3]_50 BIT_A[3]_51 BIT_A[3]_52
+  BIT_A[3]_53 BIT_A[3]_54 BIT_A[3]_55 BIT_A[3]_56 BIT_A[3]_57 BIT_A[3]_58
+  BIT_A[3]_59 BIT_A[3]_60 BIT_A[3]_61 BIT_A[3]_62 BIT_A[3]_63 BIT_B[0]_0
+  BIT_B[0]_1 BIT_B[0]_2 BIT_B[0]_3 BIT_B[0]_4 BIT_B[0]_5 BIT_B[0]_6
+  BIT_B[0]_7 BIT_B[0]_8 BIT_B[0]_9 BIT_B[0]_10 BIT_B[0]_11 BIT_B[0]_12
+  BIT_B[0]_13 BIT_B[0]_14 BIT_B[0]_15 BIT_B[0]_16 BIT_B[0]_17 BIT_B[0]_18
+  BIT_B[0]_19 BIT_B[0]_20 BIT_B[0]_21 BIT_B[0]_22 BIT_B[0]_23 BIT_B[0]_24
+  BIT_B[0]_25 BIT_B[0]_26 BIT_B[0]_27 BIT_B[0]_28 BIT_B[0]_29 BIT_B[0]_30
+  BIT_B[0]_31 BIT_B[0]_32 BIT_B[0]_33 BIT_B[0]_34 BIT_B[0]_35 BIT_B[0]_36
+  BIT_B[0]_37 BIT_B[0]_38 BIT_B[0]_39 BIT_B[0]_40 BIT_B[0]_41 BIT_B[0]_42
+  BIT_B[0]_43 BIT_B[0]_44 BIT_B[0]_45 BIT_B[0]_46 BIT_B[0]_47 BIT_B[0]_48